# pm6

DPGEN

0 1
H -2.671000 1.173000 3.150000
H -2.829000 -1.470000 0.402000
C -0.709000 -1.412000 0.402000
H -0.154000 -1.710000 1.292000
H -0.439000 -1.504000 -1.729000
H 1.069000 -1.307000 -0.803000
C -0.849000 0.104000 0.402000
O -1.961000 0.627000 0.402000
N 0.284000 0.809000 0.402000
H 1.175000 0.333000 0.402000
H -0.230000 2.622000 -0.487000
H -0.230000 2.622000 1.292000
O -2.819000 1.137000 4.095000
H -2.119819 1.809879 4.496098
N -2.006000 -2.056000 0.402000
H -2.106663 -3.101164 0.402000
C 0.099000 -1.805000 -0.830000
H 0.241552 -2.845242 -0.838669
C 0.284000 2.258000 0.402000
H 1.268078 2.624184 0.402000

