# HF/6-31G(d)

title

0 1
  C    10.58300018    15.66199970    17.44899940
  H    10.76099968    16.22100067    16.48900032
  H     9.84799957    16.25000000    17.99600029
  O    11.84200001    15.37500000    18.01399994
  C    12.57900047    16.51499939    18.41099930
  H    12.73999977    17.28700066    17.68400002
  H    13.55000019    16.03400040    18.56999969
  H    12.10599995    16.95999908    19.32200050
  C    10.02200031    14.35099983    17.06200027
  H    10.10400009    13.69600010    17.93300056
  H    10.56000042    13.85799980    16.32099915
  O     8.68500042    14.51799965    16.58799934
  C     8.05599976    13.22000027    16.43199921
  H     7.06099987    13.30700016    16.05400085
  H     7.92700005    12.69200039    17.36199951
  H     8.51399994    12.56700039    15.66800022
  C    15.13282585    16.30068398    16.44628334
  H    15.85382462    17.05668449    16.51228333
  H    14.52782440    16.20668411    17.32728195
  O    15.67182541    15.07268524    16.05928230
  C    16.43382454    14.55168533    17.09828186
  H    16.72882462    13.62568474    16.65628242
  H    15.83682442    14.29468536    17.97228241
  H    17.28982544    15.23468494    17.42228127
  C    14.08182526    16.61668396    15.37828255
  H    13.22382545    16.06068420    15.63128281
  H    14.47782516    16.46768570    14.39828300
  O    13.59782505    17.90868568    15.59928322
  C    12.74682522    18.36068535    14.51528263
  H    12.52482510    19.42068481    14.79628277
  H    11.79282570    17.83968544    14.66628265
  H    13.17482567    18.15968513    13.50028324

