# HF/6-31G(d)

title

0 1
  C    10.58300018    15.66199970    17.44899940
  H    10.76099968    16.22100067    16.48900032
  H     9.84799957    16.25000000    17.99600029
  O    11.84200001    15.37500000    18.01399994
  C    12.57900047    16.51499939    18.41099930
  H    12.73999977    17.28700066    17.68400002
  H    13.55000019    16.03400040    18.56999969
  H    12.10599995    16.95999908    19.32200050
  C    10.02200031    14.35099983    17.06200027
  H    10.10400009    13.69600010    17.93300056
  H    10.56000042    13.85799980    16.32099915
  O     8.68500042    14.51799965    16.58799934
  C     8.05599976    13.22000027    16.43199921
  H     7.06099987    13.30700016    16.05400085
  H     7.92700005    12.69200039    17.36199951
  H     8.51399994    12.56700039    15.66800022
  C    18.43643379    17.47475052    15.31726170
  H    19.15743256    18.23075104    15.38326168
  H    17.83143234    17.38075066    16.19826126
  O    18.97543335    16.24675179    14.93026161
  C    19.73743248    15.72575283    15.96926117
  H    20.03243256    14.79975224    15.52726173
  H    19.14043236    15.46875286    16.84326172
  H    20.59343338    16.40875244    16.29326057
  C    17.38543320    17.79075050    14.24926090
  H    16.52743340    17.23475075    14.50226116
  H    17.78143311    17.64175224    13.26926136
  O    16.90143204    19.08275223    14.47026157
  C    16.05043221    19.53475189    13.38626099
  H    15.82843208    20.59475136    13.66726112
  H    15.09643269    19.01375198    13.53726101
  H    16.47843361    19.33375168    12.37126160

