# HF/6-31G(d)

title

0 1
  C    10.58300018    15.66199970    17.44899940
  H    10.76099968    16.22100067    16.48900032
  H     9.84799957    16.25000000    17.99600029
  O    11.84200001    15.37500000    18.01399994
  C    12.57900047    16.51499939    18.41099930
  H    12.73999977    17.28700066    17.68400002
  H    13.55000019    16.03400040    18.56999969
  H    12.10599995    16.95999908    19.32200050
  C    10.02200031    14.35099983    17.06200027
  H    10.10400009    13.69600010    17.93300056
  H    10.56000042    13.85799980    16.32099915
  O     8.68500042    14.51799965    16.58799934
  C     8.05599976    13.22000027    16.43199921
  H     7.06099987    13.30700016    16.05400085
  H     7.92700005    12.69200039    17.36199951
  H     8.51399994    12.56700039    15.66800022
  C    19.01942253    17.68194008    15.11802197
  H    19.74042130    18.43794060    15.18402195
  H    18.41442108    17.58794022    15.99902153
  O    19.55842209    16.45394135    14.73102188
  C    20.32042122    15.93294144    15.77002144
  H    20.61542130    15.00694084    15.32802200
  H    19.72342110    15.67594147    16.64402199
  H    21.17642212    16.61594009    16.09402084
  C    17.96842194    17.99794006    14.05002117
  H    17.11042213    17.44194031    14.30302143
  H    18.36442184    17.84894180    13.07002163
  O    17.48442078    19.28994179    14.27102184
  C    16.63342094    19.74194145    13.18702126
  H    16.41142082    20.80194092    13.46802139
  H    15.67942238    19.22094154    13.33802128
  H    17.06142235    19.54094124    12.17202187

