# HF/6-31G(d)

title

0 1
  C    10.58300018    15.66199970    17.44899940
  H    10.76099968    16.22100067    16.48900032
  H     9.84799957    16.25000000    17.99600029
  O    11.84200001    15.37500000    18.01399994
  C    12.57900047    16.51499939    18.41099930
  H    12.73999977    17.28700066    17.68400002
  H    13.55000019    16.03400040    18.56999969
  H    12.10599995    16.95999908    19.32200050
  C    10.02200031    14.35099983    17.06200027
  H    10.10400009    13.69600010    17.93300056
  H    10.56000042    13.85799980    16.32099915
  O     8.68500042    14.51799965    16.58799934
  C     8.05599976    13.22000027    16.43199921
  H     7.06099987    13.30700016    16.05400085
  H     7.92700005    12.69200039    17.36199951
  H     8.51399994    12.56700039    15.66800022
  C    14.93849564    16.23162079    16.51269531
  H    15.65949440    16.98762131    16.57869530
  H    14.33349419    16.13762093    17.39369583
  O    15.47749519    15.00362301    16.12569618
  C    16.23949432    14.48262310    17.16469574
  H    16.53449440    13.55662251    16.72269630
  H    15.64249420    14.22562313    18.03869629
  H    17.09549522    15.16562271    17.48869514
  C    13.88749504    16.54762077    15.44469547
  H    13.02949524    15.99162197    15.69769573
  H    14.28349495    16.39862251    14.46469593
  O    13.40349483    17.83962250    15.66569614
  C    12.55249500    18.29162216    14.58169556
  H    12.33049488    19.35162163    14.86269569
  H    11.59849548    17.77062225    14.73269558
  H    12.98049545    18.09062195    13.56669617

