# HF/6-31G(d)

title

0 1
  C    10.58300018    15.66199970    17.44899940
  H    10.76099968    16.22100067    16.48900032
  H     9.84799957    16.25000000    17.99600029
  O    11.84200001    15.37500000    18.01399994
  C    12.57900047    16.51499939    18.41099930
  H    12.73999977    17.28700066    17.68400002
  H    13.55000019    16.03400040    18.56999969
  H    12.10599995    16.95999908    19.32200050
  C    10.02200031    14.35099983    17.06200027
  H    10.10400009    13.69600010    17.93300056
  H    10.56000042    13.85799980    16.32099915
  O     8.68500042    14.51799965    16.58799934
  C     8.05599976    13.22000027    16.43199921
  H     7.06099987    13.30700016    16.05400085
  H     7.92700005    12.69200039    17.36199951
  H     8.51399994    12.56700039    15.66800022
  C    15.71581554    16.50787163    16.24704361
  H    16.43681335    17.26387215    16.31304359
  H    15.11081409    16.41387177    17.12804413
  O    16.25481415    15.27987385    15.86004353
  C    17.01681328    14.75887394    16.89904404
  H    17.31181335    13.83287334    16.45704460
  H    16.41981316    14.50187397    17.77304459
  H    17.87281418    15.44187355    17.22304344
  C    14.66481495    16.82387161    15.17904282
  H    13.80681515    16.26787186    15.43204308
  H    15.06081486    16.67487335    14.19904327
  O    14.18081474    18.11587334    15.40004349
  C    13.32981491    18.56787300    14.31604290
  H    13.10781479    19.62787247    14.59704304
  H    12.37581539    18.04687309    14.46704292
  H    13.75781536    18.36687279    13.30104351

