# HF/6-31G(d)

title

0 1
  C    10.58300018    15.66199970    17.44899940
  H    10.76099968    16.22100067    16.48900032
  H     9.84799957    16.25000000    17.99600029
  O    11.84200001    15.37500000    18.01399994
  C    12.57900047    16.51499939    18.41099930
  H    12.73999977    17.28700066    17.68400002
  H    13.55000019    16.03400040    18.56999969
  H    12.10599995    16.95999908    19.32200050
  C    10.02200031    14.35099983    17.06200027
  H    10.10400009    13.69600010    17.93300056
  H    10.56000042    13.85799980    16.32099915
  O     8.68500042    14.51799965    16.58799934
  C     8.05599976    13.22000027    16.43199921
  H     7.06099987    13.30700016    16.05400085
  H     7.92700005    12.69200039    17.36199951
  H     8.51399994    12.56700039    15.66800022
  C    16.49313545    16.78412437    15.98139191
  H    17.21413422    17.54012489    16.04739189
  H    15.88813305    16.69012451    16.86239052
  O    17.03213501    15.55612469    15.59439182
  C    17.79413414    15.03512478    16.63339043
  H    18.08913422    14.10912418    16.19139099
  H    17.19713402    14.77812481    17.50739098
  H    18.65013504    15.71812439    16.95738983
  C    15.44213390    17.10012436    14.91339111
  H    14.58413410    16.54412460    15.16639137
  H    15.83813381    16.95112610    13.93339157
  O    14.95813370    18.39212608    15.13439178
  C    14.10713387    18.84412575    14.05039120
  H    13.88513374    19.90412521    14.33139133
  H    13.15313435    18.32312584    14.20139122
  H    14.53513432    18.64312553    13.03539181

