# HF/6-31G(d)

title

0 1
  C    10.58300018    15.66199970    17.44899940
  H    10.76099968    16.22100067    16.48900032
  H     9.84799957    16.25000000    17.99600029
  O    11.84200001    15.37500000    18.01399994
  C    12.57900047    16.51499939    18.41099930
  H    12.73999977    17.28700066    17.68400002
  H    13.55000019    16.03400040    18.56999969
  H    12.10599995    16.95999908    19.32200050
  C    10.02200031    14.35099983    17.06200027
  H    10.10400009    13.69600010    17.93300056
  H    10.56000042    13.85799980    16.32099915
  O     8.68500042    14.51799965    16.58799934
  C     8.05599976    13.22000027    16.43199921
  H     7.06099987    13.30700016    16.05400085
  H     7.92700005    12.69200039    17.36199951
  H     8.51399994    12.56700039    15.66800022
  C    16.88179398    16.92224884    15.84856606
  H    17.60279274    17.67824936    15.91456604
  H    16.27679253    16.82824898    16.72956467
  O    17.42079353    15.69425011    15.46156597
  C    18.18279266    15.17325020    16.50056458
  H    18.47779274    14.24724960    16.05856514
  H    17.58579254    14.91625023    17.37456512
  H    19.03879356    15.85624981    16.82456398
  C    15.83079338    17.23824883    14.78056526
  H    14.97279358    16.68224907    15.03356552
  H    16.22679329    17.08925056    13.80056572
  O    15.34679317    18.53025055    15.00156593
  C    14.49579334    18.98225021    13.91756535
  H    14.27379322    20.04224968    14.19856548
  H    13.54179382    18.46125031    14.06856537
  H    14.92379379    18.78125000    12.90256596

