# HF/6-31G(d)

title

0 1
  C    10.58300018    15.66199970    17.44899940
  H    10.76099968    16.22100067    16.48900032
  H     9.84799957    16.25000000    17.99600029
  O    11.84200001    15.37500000    18.01399994
  C    12.57900047    16.51499939    18.41099930
  H    12.73999977    17.28700066    17.68400002
  H    13.55000019    16.03400040    18.56999969
  H    12.10599995    16.95999908    19.32200050
  C    10.02200031    14.35099983    17.06200027
  H    10.10400009    13.69600010    17.93300056
  H    10.56000042    13.85799980    16.32099915
  O     8.68500042    14.51799965    16.58799934
  C     8.05599976    13.22000027    16.43199921
  H     7.06099987    13.30700016    16.05400085
  H     7.92700005    12.69200039    17.36199951
  H     8.51399994    12.56700039    15.66800022
  C    17.27045441    17.06037521    15.71573925
  H    17.99145317    17.81637573    15.78173923
  H    16.66545296    16.96637535    16.59673882
  O    17.80945396    15.83237553    15.32873917
  C    18.57145309    15.31137562    16.36773872
  H    18.86645317    14.38537502    15.92573929
  H    17.97445297    15.05437565    17.24173927
  H    19.42745399    15.99437523    16.69173813
  C    16.21945381    17.37637520    14.64773846
  H    15.36145401    16.82037544    14.90073872
  H    16.61545372    17.22737694    13.66773891
  O    15.73545361    18.66837692    14.86873913
  C    14.88445377    19.12037659    13.78473854
  H    14.66245365    20.18037605    14.06573868
  H    13.93045425    18.59937668    13.93573856
  H    15.31245422    18.91937637    12.76973915

